24
Beta-glucose
C  -1.16112   1.18815   0.34488   0.37760
C  -1.55014  -0.14093  -0.28365   0.16460
C  -0.63790  -1.23742   0.22154   0.03780
C   0.80342  -0.83146  -0.02079   0.32540
C   1.07981   0.53609   0.59846  -0.02460
O   0.18479   1.48753   0.01872  -0.30760
C   2.51236   0.99643   0.35352   0.16150
O		   2.98702  	 0.68614  		-0.94914 , -0.61330
O  -1.92586   2.23706  -0.17314  -0.61460
O  -2.91652  -0.37057   0.04998  -0.67440
O  -0.98052  -2.43429  -0.46889  -0.61730
O   1.71730  -1.84479   0.42803  -0.65360
H  -1.26801   1.12418   1.44588   0.02920
H  -1.41980  -0.03988  -1.37083   0.04860
H  -0.80719  -1.36163   1.30705   0.03850
H   0.97009  -0.75248  -1.09809   0.06030
H   0.90711   0.49106   1.69213   0.01910
H   3.16269   0.56220   1.12496   0.00160
H   2.54129   2.08390   0.45213   0.10090
H   3.19611  -0.26470  -0.94222   0.41400
H  -2.83079   1.88064  -0.25977   0.43120
H  -3.15044  -1.23620  -0.33318   0.46910
H  -0.25436  -3.06286  -0.29637   0.41640
H   1.66259  -1.87544   1.40172   0.40980
