224
Cholesterol (xtal)
O  3.489  13.841   5.662
C  5.789  11.170   4.371
C  5.282  12.557   4.672
C  3.983  12.509   5.362
C  4.084  11.694   6.666
C  4.636  10.311   6.371
C  4.005   9.244   6.810
C  4.509   7.830   6.681
C  5.992   7.778   6.284
C  6.256   8.806   5.169
C  5.930  10.261   5.621
C  7.635   8.646   4.518
C  7.990   7.202   4.135
C  7.818   6.230   5.313
C  6.366   6.380   5.801
C  6.124   5.210   6.745
C  7.024   4.085   6.126
C  7.779   4.723   4.956
C  8.839   6.546   6.384
C  7.059  10.802   6.558
C  9.134   3.952   4.701
C  9.950   4.638   3.641
C  8.835   2.499   4.309
C 10.067   1.643   4.130
C  9.657   0.183   3.771
C 10.674  -0.750   3.095
C 11.736  -0.708   4.028
C  9.992  -2.164   2.682
O  6.887  18.024   6.103
C  8.323  14.716   5.074
C  7.490  16.000   4.973
C  7.664  16.815   6.257
C  9.113  17.135   6.494
C  9.979  15.893   6.541
C 10.821  15.651   7.539
C 11.763  14.478   7.613
C 11.856  13.710   6.304
C 10.453  13.562   5.704
C  9.843  14.931   5.357
C 10.440  12.572   4.522
C 11.076  11.219   4.812
C 12.505  11.366   5.333
C 12.436  12.301   6.559
C 13.845  12.214   7.208
C 14.250  10.734   6.932
C 13.153  10.111   5.954
C 13.404  11.949   4.204
C 10.524  15.574   4.120
C 13.722   9.030   5.090
C 12.683   8.387   4.150
C 14.467   7.916   5.856
C 13.610   7.181   6.844
C 14.362   5.988   7.496
C 14.695   4.858   6.604
C 13.501   4.228   6.048
C 15.502   3.774   7.334
O  3.151  14.017   0.630
C  2.261  10.604   1.978
C  2.067  12.051   1.548
C  3.339  12.653   1.015
C  3.778  11.880  -0.208
C  3.996  10.404   0.164
C  5.142   9.826  -0.160
C  5.460   8.383   0.148
C  4.258   7.563   0.556
C  3.377   8.382   1.503
C  2.861   9.691   0.852
C  2.275   7.523   2.153
C  2.773   6.241   2.811
C  3.589   5.400   1.793
C  4.721   6.288   1.256
C  5.633   5.326   0.477
C  5.554   4.008   1.280
C  4.398   4.204   2.363
C  2.643   4.885   0.629
C  1.773   9.424  -0.238
C  3.728   2.880   2.749
C  2.603   3.090   3.775
C  4.805   1.879   3.207
C  4.260   0.470   3.356
C  5.517  -0.551   3.730
C  5.022  -1.770   4.166
C  4.792  -2.582   2.803
C  6.206  -2.491   4.739
O  6.837  18.669   0.875
C  6.971  14.886   1.018
C  6.332  16.286   0.788
C  7.373  17.342   1.086
C  8.619  17.123   0.198
C  9.185  15.758   0.342
C 10.470  15.551   0.583
C 11.176  14.258   0.642
C 10.289  13.099   0.096
C  8.865  13.282   0.644
C  8.196  14.593   0.163
C  8.000  12.023   0.367
C  8.661  10.682   0.754
C 10.010  10.515   0.064
C 10.819  11.743   0.509
C 12.298  11.399   0.101
C 12.353   9.861   0.277
C 10.884   9.371   0.565
C  9.877  10.483  -1.481
C  7.785  14.514  -1.345
C 10.685   7.933  -0.011
C  9.241   7.465   0.182
C 11.676   6.979   0.667
C 11.619   5.526   0.195
C 12.709   4.694   0.920
C 12.544   3.170   0.723
C 12.769   2.838  -0.680
C 13.530   2.434   1.686
O  6.817  18.996   8.688
C  4.390  21.799   7.896
C  4.955  20.357   7.987
C  6.320  20.348   8.628
C  6.231  20.961  10.042
C  5.656  22.331  10.093
C  6.287  23.339  10.565
C  5.798  24.753  10.655
C  4.289  24.870  10.301
C  4.041  24.009   9.046
C  4.324  22.520   9.292
C  2.624  24.294   8.484
C  2.268  25.752   8.279
C  2.473  26.548   9.584
C  3.948  26.329  10.016
C  4.181  27.336  11.162
C  3.314  28.604  10.708
C  2.481  28.101   9.433
C  1.433  26.139  10.625
C  3.226  21.831  10.130
C  1.173  28.885   9.333
C  0.355  28.401   8.117
C  1.516  30.394   9.138
C  0.339  31.339   9.051
C  0.712  32.762   8.915
C -0.347  33.986   8.500
C -1.494  33.621   9.414
C  0.643  35.225   8.033
O  3.410  14.540   8.547
C  2.125  18.032   8.139
C  2.967  16.777   7.852
C  2.656  15.720   8.874
C  1.185  15.428   8.953
C  0.336  16.652   9.160
C -0.617  16.691  10.088
C -1.535  17.834  10.318
C -1.533  18.872   9.197
C -0.057  19.104   8.744
C  0.588  17.817   8.194
C  0.033  20.302   7.746
C -0.659  21.588   8.267
C -2.124  21.310   8.628
C -2.151  20.184   9.660
C -3.603  20.178  10.177
C -3.978  21.672  10.130
C -2.848  22.446   9.447
C -2.940  20.993   7.373
C  0.058  17.437   6.790
C -3.332  23.722   8.730
C -2.215  24.493   8.048
C -4.135  24.624   9.660
C -3.382  25.153  10.828
C -4.145  26.155  11.703
C -4.434  27.479  11.034
C -3.205  28.205  10.718
C -5.265  28.374  11.960
O  6.912  19.527   3.646
C  7.969  22.662   5.492
C  8.104  21.270   4.888
C  6.799  20.815   4.272
C  6.380  21.815   3.196
C  6.201  23.197   3.789
C  5.089  23.889   3.610
C  4.778  25.264   4.122
C  6.029  25.975   4.657
C  6.900  24.954   5.445
C  7.382  23.767   4.583
C  8.041  25.671   6.225
C  7.578  26.876   7.066
C  6.813  27.883   6.208
C  5.648  27.092   5.573
C  4.730  28.183   5.003
C  4.859  29.361   6.012
C  5.986  28.960   6.987
C  7.695  28.515   5.178
C  8.440  24.186   3.551
C  6.750  30.182   7.552
C  7.803  29.825   8.570
C  5.770  31.118   8.199
C  6.270  32.518   8.612
C  4.987  33.484   9.106
C  5.382  34.730   9.491
C  5.718  35.535   8.189
C  4.206  35.301  10.232
O  3.048  15.118   3.226
C  3.048  18.806   4.104
C  3.613  17.418   3.701
C  2.546  16.380   3.673
C  1.404  16.782   2.716
C  0.866  18.159   3.081
C -0.450  18.323   3.284
C -1.088  19.662   3.580
C -0.169  20.832   3.287
C  1.244  20.530   3.849
C  1.887  19.287   3.178
C  2.159  21.767   3.822
C  1.523  23.034   4.369
C  0.200  23.356   3.685
C -0.694  22.109   3.875
C -2.107  22.617   3.488
C -2.132  24.071   3.954
C -0.659  24.448   4.366
C  0.406  23.686   2.201
C  2.413  19.590   1.783
C -0.398  25.954   4.040
C  1.054  26.349   4.329
C -1.375  26.792   4.892
C -1.345  28.295   4.635
C -2.376  29.022   5.508
C -2.306  30.563   5.455
C -2.489  31.154   4.117
C -3.183  31.178   6.530
