9
Formate
C   -0.07039   0.03147  -3.04534 
O    0.29617   0.02088   1.80061 
C    0.05572  -0.03465   3.04574 
O   -0.20174   0.00396  -1.78332 
H    0.84587  -0.29170   3.73778 
O   -1.11177   0.21181   3.47791 
O    1.06302   0.27882  -3.55997 
H   -0.92419  -0.15706  -3.68204 
H    0.00000   0.00000   0.00000 
